15
2-Aminobenzonitrile.log	Energy: -238367.6342420
C         -1.81823       -1.27249        0.00282
C         -2.28504        0.04837        0.01119
C         -1.40460        1.12177        0.00522
C         -0.01241        0.91279       -0.00910
C          0.45682       -0.42829       -0.01042
C         -0.45003       -1.50248       -0.00769
C          1.86582       -0.66151       -0.00100
N          3.02401       -0.78982        0.01696
N          0.86588        1.97034       -0.06542
H         -2.51394       -2.10422        0.00618
H         -3.35353        0.24322        0.02236
H         -1.78402        2.13985        0.00456
H         -0.05681       -2.51372       -0.00886
H          1.83718        1.78805        0.14319
H          0.52797        2.87424        0.22564
