16
2-Methylglutaronitrile.log	Energy: -215199.0262520
C         -1.41477        1.64791       -0.32677
C         -1.11926        0.29584        0.35489
H         -1.09587        0.44844        1.44311
C         -2.21402       -0.65109        0.09038
N         -3.07616       -1.39634       -0.13052
C          0.22404       -0.34328       -0.07647
C          1.44381        0.49794        0.35358
C          2.70898       -0.15225        0.00388
N          3.70434       -0.67710       -0.27993
H         -0.66280        2.39229       -0.05257
H         -1.41727        1.54012       -1.41528
H         -2.39121        2.02982       -0.01986
H          0.30578       -1.34056        0.36530
H          0.23188       -0.47534       -1.16329
H          1.42934        1.48565       -0.11930
H          1.43018        0.66327        1.43808
