13
2,6-Dichlorobenzonitrile.log	Energy: -780419.6516079
C         -0.00001        2.46633        0.00000
C          1.21245        1.77904        0.00000
C          1.20917        0.38733       -0.00000
C          0.00000       -0.33965       -0.00001
C         -1.20917        0.38732       -0.00000
C         -1.21247        1.77903        0.00001
Cl        -2.73111       -0.46432       -0.00000
C          0.00001       -1.76955        0.00001
N          0.00004       -2.93224       -0.00000
Cl         2.73111       -0.46430        0.00000
H         -0.00002        3.55158       -0.00005
H          2.15638        2.31073        0.00003
H         -2.15640        2.31071        0.00003
