13
4-Chlorobenzonitrile.log	Energy: -492025.7754608
C          0.81176       -1.21510       -0.00003
C         -0.57917       -1.21679       -0.00001
C         -1.26335       -0.00000       -0.00000
C         -0.57916        1.21679       -0.00003
C          0.81176        1.21510       -0.00003
C          1.51641       -0.00000       -0.00003
C          2.94989        0.00000        0.00001
N          4.11331        0.00000        0.00006
Cl        -3.01498        0.00000        0.00003
H          1.35649       -2.15284       -0.00009
H         -1.13015       -2.15007        0.00002
H         -1.13015        2.15007       -0.00001
H          1.35649        2.15284       -0.00003
