17
4-Methoxybenzonitrile.log	Energy: -275493.6935221
C         -2.57342        2.40933        0.00000
O         -2.43330        0.99343        0.00000
C         -1.18376        0.46360        0.00000
C         -1.12090       -0.94059        0.00000
C          0.10439       -1.58397        0.00000
C          1.29923       -0.83715        0.00000
C          1.23040        0.56318        0.00000
C          0.00000        1.21514        0.00000
C          2.56805       -1.49988        0.00000
N          3.59948       -2.03950        0.00000
H         -2.12465        2.85754        0.89466
H         -2.12465        2.85754       -0.89466
H         -3.64645        2.60235        0.00000
H         -2.05006       -1.49974        0.00000
H          0.15058       -2.66767        0.00000
H          2.14701        1.14338        0.00000
H         -0.02572        2.29767        0.00000
