19
‚ç∫-Methylbenzyl-cyanide.log	Energy: -252967.8023410
C         -1.86131       -1.34143        1.09320
C         -1.39870       -0.62259       -0.19873
H         -1.52535       -1.31652       -1.03928
C         -2.27335        0.52854       -0.47463
N         -2.97442        1.43314       -0.66994
C          0.07417       -0.22158       -0.13152
C          0.47967        0.98974        0.44009
C          1.83532        1.30242        0.54235
C          2.80044        0.40850        0.07618
C          2.40285       -0.80007       -0.49696
C          1.04699       -1.11120       -0.60111
H         -1.75903       -0.67970        1.95688
H         -2.90589       -1.65436        1.01388
H         -1.23879       -2.22413        1.25994
H         -0.26689        1.69635        0.79145
H          2.13634        2.24832        0.98276
H          3.85517        0.65476        0.15362
H          3.14629       -1.49859       -0.86949
H          0.74261       -2.05214       -1.05332
