18
Benzoylacetonitrile.log	Energy: -299408.7169604
C         -3.31436       -0.28823        0.00013
C         -2.79939        1.01145        0.00002
C         -1.42375        1.21432       -0.00004
C         -0.54421        0.11918       -0.00000
C         -1.06955       -1.18247        0.00010
C         -2.44900       -1.38343        0.00016
C          0.92107        0.41045       -0.00007
O          1.35418        1.54628       -0.00018
C          1.88482       -0.79606        0.00003
C          3.29154       -0.40342       -0.00005
N          4.41897       -0.13218       -0.00012
H         -4.38868       -0.44695        0.00018
H         -3.47243        1.86335       -0.00001
H         -1.00018        2.21271       -0.00012
H         -0.41352       -2.04689        0.00014
H         -2.84752       -2.39322        0.00024
H          1.68652       -1.42225        0.87847
H          1.68649       -1.42246       -0.87827
