13
Benzonitrile.log	Energy: -203626.8672368
C         -2.18048        0.00000        0.00009
C         -1.48370        1.21065        0.00002
C         -0.09146        1.21719       -0.00007
C          0.60999        0.00001       -0.00008
C         -0.09146       -1.21719       -0.00007
C         -1.48369       -1.21066        0.00002
C          2.04479       -0.00001       -0.00000
N          3.20805        0.00001        0.00010
H         -3.26623       -0.00000        0.00023
H         -2.02525        2.15136       -0.00008
H          0.45820        2.15236       -0.00011
H          0.45822       -2.15235       -0.00012
H         -2.02525       -2.15136       -0.00008
