17
Mandelonitrile.log	Energy: -275489.0737823
C         -2.79173        0.40327       -0.13239
C         -2.35790       -0.92065       -0.03568
C         -1.00246       -1.20340        0.12385
C         -0.06727       -0.16217        0.18513
C         -0.50412        1.16229        0.08592
C         -1.86292        1.44190       -0.07092
C          1.40210       -0.52934        0.39778
H          1.56455       -0.77011        1.45606
C          2.31664        0.59208        0.07070
N          3.04381        1.45415       -0.20299
O          1.78914       -1.70584       -0.29664
H         -3.84776        0.62305       -0.25744
H         -3.07536       -1.73444       -0.08425
H         -0.65914       -2.23051        0.19425
H          0.21417        1.97557        0.12354
H         -2.19191        2.47357       -0.15101
H          1.58165       -1.57328       -1.23345
